$
*KEYWORD
*TITLE
D:\Modified_Wing\Scripts\WingLattice_v2.k
*NODE
$#   nid               x               y               z      tc      rc
       1  22.91206741333 13.646768569946 38.042579650879                
       2 74.512840270996    20.560558319 28.405736923218                
       3 74.469352722168 20.493085861206  28.41735458374                
       4    63.596748352   -7.0917401313 46.205715179443                
       5 63.756896972656   -6.9869976043 45.860744476318                
       6 63.839794158935 -7.073814868927 45.983699798584                
       7  55.31844329834  -0.78726804256 59.415607452393                
       8  45.98161315918 5.5666971206665 71.555648803711                
       9 60.217987060547 5.5658273696899 80.847244262695                
      10 47.549350738525  6.916663646698  71.54736328125                
      11 76.211204528809   -5.4036383628 57.586166381836                
      12 3.5611803531647   -2.3405058383     24.82330513                
      13 10.270813941956 4.5872330665588   50.2493019104                
      14 34.557239532471 6.5776262283325 42.286441802979                
      15 71.481460571289 19.463214874267 76.200004577637                
      16 72.946266174316 11.778483390808 76.200004577637                
      17 63.881717681885 15.957409858704  25.51016998291                
      18 48.279930114746 6.9316883087158 72.554779052734                
      19 57.919929504395 6.9322633743286 79.844909667969                
      20 45.754383087158   -2.5540921688 57.287044525146                
$ ... 37398 like lines cut
*ELEMENT_SOLID
$#   eid     pid      n1      n2      n3      n4      n5      n6      n7      n8
       1       1    4792    4795    4791    4799    4799    4799    4799    4799
       2       1    4792    4788    4795    4799    4799    4799    4799    4799
       3       1    4792   33256    4788    4799    4799    4799    4799    4799
       4       1    4792    4791   33256    4799    4799    4799    4799    4799
       5       1   36663   26588   33236    6864    6864    6864    6864    6864
       6       1   36663   33236    6863    6864    6864    6864    6864    6864
       7       1   36663    6863    7612    6864    6864    6864    6864    6864
       8       1   36663    7612   26587    6864    6864    6864    6864    6864
       9       1   36663   26587   26588    6864    6864    6864    6864    6864
      10       1   32966    9812   33002   27757   27757   27757   27757   27757
      11       1   10016    9812   33002   32966   32966   32966   32966   32966
      12       1   32966   33002   37369   27757   27757   27757   27757   27757
      13       1   10016   33002   37369   32966   32966   32966   32966   32966
      14       1   32966   27758   27762   27757   27757   27757   27757   27757
      15       1   10016   27758   27762   32966   32966   32966   32966   32966
      16       1   32966   37369   27758   27757   27757   27757   27757   27757
      17       1   10016   37369   27758   32966   32966   32966   32966   32966
      18       1   32966   27762    9812   27757   27757   27757   27757   27757
      19       1   10016   27762    9812   32966   32966   32966   32966   32966
      20       1   18643   18639   18646   33854   33854   33854   33854   33854
$ ... 104601 like lines cut
*MAT_PIECEWISE_LINEAR_PLASTICITY
$#     mid        ro         e        pr      sigy      etan      fail      tdel
         1  1.25e-09       1.0      0.35      0.05               1e+21          
$#       c         p      lcss      lcsr        vp
                             0         0       0.0
$#    eps1      eps2      eps3      eps4      eps5      eps6      eps7      eps8
                                                                                
$#     es1       es2       es3       es4       es5       es6       es7       es8
                                                                                
*SECTION_SOLID
$#   secid    elform       aet    unused    unused    unused    cohoff   gaskeit
         1         1         0                                                  
*PART
$#                                                             heading
nan                                                                   
$#     pid     secid       mid     eosid      hgid      grav    adpopt      tmid
         1         1         1                                                  
*MAT_PIECEWISE_LINEAR_PLASTICITY
$#     mid        ro         e        pr      sigy      etan      fail      tdel
         1  1.25e-09       1.0      0.35      0.05               1e+21          
$#       c         p      lcss      lcsr        vp
                             0         0       0.0
$#    eps1      eps2      eps3      eps4      eps5      eps6      eps7      eps8
                                                                                
$#     es1       es2       es3       es4       es5       es6       es7       es8
                                                                                
*SECTION_SOLID
$#   secid    elform       aet    unused    unused    unused    cohoff   gaskeit
         1        10         0                                                  
*PART
$#                                                             heading
nan                                                                   
$#     pid     secid       mid     eosid      hgid      grav    adpopt      tmid
         1         1         1                                                  
*MAT_PIECEWISE_LINEAR_PLASTICITY
$#     mid        ro         e        pr      sigy      etan      fail      tdel
         1  1.25e-09       1.0      0.35      0.05               1e+21          
$#       c         p      lcss      lcsr        vp
                             0         0       0.0
$#    eps1      eps2      eps3      eps4      eps5      eps6      eps7      eps8
                                                                                
$#     es1       es2       es3       es4       es5       es6       es7       es8
                                                                                
*SECTION_SOLID
$#   secid    elform       aet    unused    unused    unused    cohoff   gaskeit
         1        10         0                                                  
*PART
$#                                                             heading
None                                                                  
$#     pid     secid       mid     eosid      hgid      grav    adpopt      tmid
         1         1         1                                                  
*END